version 2
run adversary-0-20140724-04:29:46-31493
attr configname adversary
attr datetime 20140724-04:29:46
attr experiment adversary
attr inifile omnetpp.ini
attr iterationvars ""
attr iterationvars2 $repetition=0
attr measurement ""
attr network ned.Network
attr processid 31493
attr repetition 0
attr replication #0
attr resultdir results
attr runnumber 0
attr seedset 0

