version 2
run adversary-0-20140621-15:10:41-11873
attr configname adversary
attr datetime 20140621-15:10:41
attr experiment adversary
attr inifile omnetpp.ini
attr iterationvars ""
attr iterationvars2 $repetition=0
attr measurement ""
attr network ned.Network
attr processid 11873
attr repetition 0
attr replication #0
attr resultdir results
attr runnumber 0
attr seedset 0

