version 2
run CACCVehiclePlatoonManag4-2-20140827-00:22:21-2181
attr configname CACCVehiclePlatoonManag4
attr datetime 20140827-00:22:21
attr experiment CACCVehiclePlatoonManag4
attr inifile omnetpp.ini
attr iterationvars ""
attr iterationvars2 $repetition=2
attr measurement ""
attr network ned.Network
attr processid 2181
attr repetition 2
attr replication #2
attr resultdir results
attr runnumber 2
attr seedset 2

