version 2
run CACCVehiclePlatoonManag-0-20140731-09:51:36-9562
attr configname CACCVehiclePlatoonManag
attr datetime 20140731-09:51:36
attr experiment CACCVehiclePlatoonManag
attr inifile omnetpp.ini
attr iterationvars ""
attr iterationvars2 $repetition=0
attr measurement ""
attr network ned.Network
attr processid 9562
attr repetition 0
attr replication #0
attr resultdir results
attr runnumber 0
attr seedset 0

