version 2
run CACCVehiclePlatoonManag4-9-20140827-00:48:30-23000
attr configname CACCVehiclePlatoonManag4
attr datetime 20140827-00:48:30
attr experiment CACCVehiclePlatoonManag4
attr inifile omnetpp.ini
attr iterationvars ""
attr iterationvars2 $repetition=9
attr measurement ""
attr network ned.Network
attr processid 23000
attr repetition 9
attr replication #9
attr resultdir results
attr runnumber 9
attr seedset 9

