version 2
run CACCVehicleStream-0-20140710-08:02:39-10028
attr configname CACCVehicleStream
attr datetime 20140710-08:02:39
attr experiment CACCVehicleStream
attr inifile omnetpp.ini
attr iterationvars ""
attr iterationvars2 $repetition=0
attr measurement ""
attr network ned.Network
attr processid 10028
attr repetition 0
attr replication #0
attr resultdir results
attr runnumber 0
attr seedset 0

