version 2
run CACCVehicleStream-0-20140626-18:07:39-21794
attr configname CACCVehicleStream
attr datetime 20140626-18:07:39
attr experiment CACCVehicleStream
attr inifile omnetpp.ini
attr iterationvars ""
attr iterationvars2 $repetition=0
attr measurement ""
attr network ned.Network
attr processid 21794
attr repetition 0
attr replication #0
attr resultdir results
attr runnumber 0
attr seedset 0

