version 2
run CACCVehiclePlatoonManag4-11-20140827-00:53:40-30492
attr configname CACCVehiclePlatoonManag4
attr datetime 20140827-00:53:40
attr experiment CACCVehiclePlatoonManag4
attr inifile omnetpp.ini
attr iterationvars ""
attr iterationvars2 $repetition=11
attr measurement ""
attr network ned.Network
attr processid 30492
attr repetition 11
attr replication #11
attr resultdir results
attr runnumber 11
attr seedset 11

