version 2
run Cmdenv-1-20131125-06:20:17-20402
attr configname Cmdenv
attr datetime 20131125-06:20:17
attr experiment Cmdenv
attr inifile omnetpp.ini
attr iterationvars $plr=20
attr iterationvars2 "$plr=20, $repetition=0"
attr measurement $plr=20
attr network ned.Network
attr plr 20
attr processid 20402
attr repetition 0
attr replication #0
attr resultdir results
attr runnumber 1
attr seedset 1

scalar . 	plr 	20
