version 2
run Cmdenv-3-20131203-03:58:24-4470
attr configname Cmdenv
attr datetime 20131203-03:58:24
attr experiment Cmdenv
attr inifile omnetpp.ini
attr iterationvars $plr=50
attr iterationvars2 "$plr=50, $repetition=0"
attr measurement $plr=50
attr network ned.Network
attr plr 50
attr processid 4470
attr repetition 0
attr replication #0
attr resultdir results
attr runnumber 3
attr seedset 3

scalar . 	plr 	50
