version 2
run Cmdenv-0-20131203-02:21:08-3764
attr configname Cmdenv
attr datetime 20131203-02:21:08
attr experiment Cmdenv
attr inifile omnetpp.ini
attr iterationvars $plr=0
attr iterationvars2 "$plr=0, $repetition=0"
attr measurement $plr=0
attr network ned.Network
attr plr 0
attr processid 3764
attr repetition 0
attr replication #0
attr resultdir results
attr runnumber 0
attr seedset 0

scalar . 	plr 	0
