version 2
run Cmdenv-2-20131118-03:14:59-22802
attr PLR 50
attr configname Cmdenv
attr datetime 20131118-03:14:59
attr experiment Cmdenv
attr inifile omnetpp.ini
attr iterationvars $PLR=50
attr iterationvars2 "$PLR=50, $repetition=0"
attr measurement $PLR=50
attr network ned.Network
attr processid 22802
attr repetition 0
attr replication #0
attr resultdir results
attr runnumber 2
attr seedset 2

scalar . 	PLR 	50
