version 2
run Cmdenv-4-20131118-23:06:09-14980
attr PLR 70
attr configname Cmdenv
attr datetime 20131118-23:06:09
attr experiment Cmdenv
attr inifile omnetpp.ini
attr iterationvars $PLR=70
attr iterationvars2 "$PLR=70, $repetition=0"
attr measurement $PLR=70
attr network ned.Network
attr processid 14980
attr repetition 0
attr replication #0
attr resultdir results
attr runnumber 4
attr seedset 4

scalar . 	PLR 	70
