version 2
run Cmdenv-2-20131203-03:55:49-4451
attr configname Cmdenv
attr datetime 20131203-03:55:49
attr experiment Cmdenv
attr inifile omnetpp.ini
attr iterationvars $plr=40
attr iterationvars2 "$plr=40, $repetition=0"
attr measurement $plr=40
attr network ned.Network
attr plr 40
attr processid 4451
attr repetition 0
attr replication #0
attr resultdir results
attr runnumber 2
attr seedset 2

scalar . 	plr 	40
