version 2
run Cmdenv-0-20131118-03:00:23-22694
attr PLR 0
attr configname Cmdenv
attr datetime 20131118-03:00:23
attr experiment Cmdenv
attr inifile omnetpp.ini
attr iterationvars $PLR=0
attr iterationvars2 "$PLR=0, $repetition=0"
attr measurement $PLR=0
attr network ned.Network
attr processid 22694
attr repetition 0
attr replication #0
attr resultdir results
attr runnumber 0
attr seedset 0

scalar . 	PLR 	0
