version 2
run Cmdenv-6-20131203-07:08:05-4628
attr configname Cmdenv
attr datetime 20131203-07:08:05
attr experiment Cmdenv
attr inifile omnetpp.ini
attr iterationvars $plr=100
attr iterationvars2 "$plr=100, $repetition=0"
attr measurement $plr=100
attr network ned.Network
attr plr 100
attr processid 4628
attr repetition 0
attr replication #0
attr resultdir results
attr runnumber 6
attr seedset 6

scalar . 	plr 	100
