version 2
run Cmdenv_fasterGUI-0-20131202-23:01:25-26079
attr configname Cmdenv_fasterGUI
attr datetime 20131202-23:01:25
attr experiment Cmdenv_fasterGUI
attr inifile omnetpp.ini
attr iterationvars ""
attr iterationvars2 $repetition=0
attr measurement ""
attr network ned.Network
attr processid 26079
attr repetition 0
attr replication #0
attr resultdir results
attr runnumber 0
attr seedset 0

