version 2
run incidentDetection-0-20140622-21:28:18-30979
attr configname incidentDetection
attr datetime 20140622-21:28:18
attr experiment incidentDetection
attr inifile omnetpp.ini
attr iterationvars ""
attr iterationvars2 $repetition=0
attr measurement ""
attr network ned.Network
attr processid 30979
attr repetition 0
attr replication #0
attr resultdir results
attr runnumber 0
attr seedset 0

