version 2
run nodebug-0-20131009-20:52:04-8526
attr configname nodebug
attr datetime 20131009-20:52:04
attr experiment nodebug
attr inifile omnetpp.ini
attr iterationvars ""
attr iterationvars2 $repetition=0
attr measurement ""
attr network ned.Network
attr processid 8526
attr repetition 0
attr replication #0
attr resultdir results
attr runnumber 0
attr seedset 0

