version 2
run nodebug-0-20131117-21:55:31-9750
attr configname nodebug
attr datetime 20131117-21:55:31
attr experiment nodebug
attr inifile omnetpp.ini
attr iterationvars ""
attr iterationvars2 $repetition=0
attr measurement ""
attr network ned.Network
attr processid 9750
attr repetition 0
attr replication #0
attr resultdir results
attr runnumber 0
attr seedset 0

