version 2
run Pedestrian-0-20150407-00:47:51-13257
attr configname Pedestrian
attr datetime 20150407-00:47:51
attr experiment Pedestrian
attr inifile omnetpp.ini
attr iterationvars ""
attr iterationvars2 $repetition=0
attr measurement ""
attr network ned.Network
attr processid 13257
attr repetition 0
attr replication #0
attr resultdir results
attr runnumber 0
attr seedset 0

