version 2
run Pedestrian-0-20150217-17:40:13-14541
attr configname Pedestrian
attr datetime 20150217-17:40:13
attr experiment Pedestrian
attr inifile omnetpp.ini
attr iterationvars ""
attr iterationvars2 $repetition=0
attr measurement ""
attr network ned.Network
attr processid 14541
attr repetition 0
attr replication #0
attr resultdir results
attr runnumber 0
attr seedset 0

