version 2
run Router-0-20141012-22:49:43-14338
attr configname Router
attr datetime 20141012-22:49:43
attr experiment Router
attr inifile omnetpp.ini
attr iterationvars ""
attr iterationvars2 $repetition=0
attr measurement ""
attr network ned.Network
attr processid 14338
attr repetition 0
attr replication #0
attr resultdir results
attr runnumber 0
attr seedset 0

