version 2
run Router-0-20141013-22:10:28-26003
attr configname Router
attr datetime 20141013-22:10:28
attr experiment Router
attr inifile omnetpp.ini
attr iterationvars ""
attr iterationvars2 $repetition=0
attr measurement ""
attr network ned.Network
attr processid 26003
attr repetition 0
attr replication #0
attr resultdir results
attr runnumber 0
attr seedset 0

