version 2
run Router-0-20140819-19:45:12-25227
attr configname Router
attr datetime 20140819-19:45:12
attr experiment Router
attr inifile omnetpp.ini
attr iterationvars ""
attr iterationvars2 $repetition=0
attr measurement ""
attr network ned.Network
attr processid 25227
attr repetition 0
attr replication #0
attr resultdir results
attr runnumber 0
attr seedset 0

